/*--------------------------------*- C++ -*----------------------------------*\
  =========                 |
  \\      /  F ield         | OpenFOAM: The Open Source CFD Toolbox
   \\    /   O peration     | Website:  https://openfoam.org
    \\  /    A nd           | Version:  9
     \\/     M anipulation  |
\*---------------------------------------------------------------------------*/
FoamFile
{
    format      ascii;
    class       volScalarField;
    location    "0";
    object      nuTilda;
}
// * * * * * * * * * * * * * * * * * * * * * * * * * * * * * * * * * * * * * //

dimensions      [0 2 -1 0 0 0 0];

internalField   uniform 0.05;

boundaryField
{
    oversetPatch
    {
        type            overset;
    }
    inlet
    {
        type            fixedValue;
        value           uniform 0.05;
    }
        outlet
    {
        type            inletOutlet;
        inletValue      uniform 0.05;
        value           uniform 0.05;
    }
   wallsWing
    {
        type            fixedValue;
        value           uniform 0;
    }

    wallsBackGround
    {
        type            slip;
    }
    wallsTop
    {
        type        	slip;
    }
    frontAndBackBackGround
    {
        type slip;
    }
    "proc.*"
    {
        type            processor;
    }
}


// ************************************************************************* //
