/*--------------------------------*- C++ -*----------------------------------*\
| =========                 |                                                 |
| \\      /  F ield         | OpenFOAM: The Open Source CFD Toolbox           |
|  \\    /   O peration     | Version:  v1906                                 |
|   \\  /    A nd           | Web:      www.OpenFOAM.com                      |
|    \\/     M anipulation  |                                                 |
\*---------------------------------------------------------------------------*/
FoamFile
{
    version     2.0;
    format      ascii;
    class       volVectorField;
    object      U;
}
// * * * * * * * * * * * * * * * * * * * * * * * * * * * * * * * * * * * * * //
pressure        0;

turbulentKE     0.24;

turbulentOmega  1.78;

dimensions      [0 1 -1 0 0 0 0];

internalField   uniform (10 0 0);

boundaryField
{
    #includeEtc "caseDicts/setConstraintTypes"
    oversetPatch
    {
        type            overset;
    }
    wallsBackGround
    {
                   
        type    slip;        
        //type            zeroGradient;
    }
    
    wallsTop
    {
        type            slip;
        //type            uniformFixedValue;
        //uniformValue    (0 0 0);
        //type            zeroGradient;
    }

    wallsWing
    {
        type            movingWallVelocity;
        value           uniform (0 0 0);
    }
    frontAndBackBackGround
    {
        type slip;
    }
    inlet
    {
        type            fixedValue;
        value           uniform (10 0 0);
    }
    
    outlet
    {
        type            inletOutlet;
        inletValue      uniform (0 0 0);
        value           uniform (10 0 0);
    }
  
}

// ************************************************************************* //
